Circuit: * C:\Users\alanr\OneDrive\11th Semester\Robotica 2\VSCODE\Motor\Robotica_2_Soto_Bot\Hardware\SPICE\ArduinoToDriver.asc

WARNING: Less than two connections to node N006.  This node is used by R1.
Direct Newton iteration for .op point succeeded.
.step x=0.0001
.step x=0.0002
.step x=0.0003
.step x=0.0004
.step x=0.0005
.step x=0.0006
.step x=0.0007
.step x=0.0008
.step x=0.0009

Date: Fri Jun 09 23:51:23 2023
Total elapsed time: 71.117 seconds.

tnom = 27
temp = 27
method = modified trap
totiter = 3924614
traniter = 3924606
tranpoints = 1721585
accept = 1217643
rejected = 503942
matrix size = 14
fillins = 0
solver = Normal
Matrix Compiler1: 626 bytes object code size  0.1/0.1/[0.1]
Matrix Compiler2: off  [0.1]/0.1/0.2

